!-Generator IDFEditor 1.51
!-Option SortedOrder

!-NOTE: All comments with '!-' are ignored by the IDFEditor and are generated automatically.
!-      Use '!' comments if they need to be retained when using the IDFEditor.


!-   ===========  ALL OBJECTS IN CLASS: VERSION ===========

Version,
    9.5;                     !- Version Identifier


!-   ===========  ALL OBJECTS IN CLASS: SIMULATIONCONTROL ===========

SimulationControl,
    Yes,                     !- Do Zone Sizing Calculation
    Yes,                     !- Do System Sizing Calculation
    No,                      !- Do Plant Sizing Calculation
    No,                      !- Run Simulation for Sizing Periods
    Yes,                     !- Run Simulation for Weather File Run Periods
    Yes,                     !- Do HVAC Sizing Simulation for Sizing Periods
    1;                       !- Maximum Number of HVAC Sizing Simulation Passes


!-   ===========  ALL OBJECTS IN CLASS: BUILDING ===========

Building,
    TAMU_LabHomes,           !- Name
    -90.0,                   !- North Axis {deg}
    City,                    !- Terrain
    0.04,                    !- Loads Convergence Tolerance Value {W}
    0.4,                     !- Temperature Convergence Tolerance Value {deltaC}
    FullInteriorAndExterior, !- Solar Distribution
    25,                      !- Maximum Number of Warmup Days
    ;                        !- Minimum Number of Warmup Days


!-   ===========  ALL OBJECTS IN CLASS: TIMESTEP ===========

Timestep,
    4;                       !- Number of Timesteps per Hour


!-   ===========  ALL OBJECTS IN CLASS: SITE:LOCATION ===========

Site:Location,
    College Station,         !- Name
    30.58,                   !- Latitude {deg}
    -96.37,                  !- Longitude {deg}
    -6.0,                    !- Time Zone {hr}
    96.00;                   !- Elevation {m}


!-   ===========  ALL OBJECTS IN CLASS: SIZINGPERIOD:DESIGNDAY ===========

SizingPeriod:DesignDay,
    College Station Easterwood Fl Ann Htg 99.6% Condns DB,  !- Name
    1,                       !- Month
    21,                      !- Day of Month
    WinterDesignDay,         !- Day Type
    -3.3,                    !- Maximum Dry-Bulb Temperature {C}
    0.0,                     !- Daily Dry-Bulb Temperature Range {deltaC}
    DefaultMultipliers,      !- Dry-Bulb Temperature Range Modifier Type
    ,                        !- Dry-Bulb Temperature Range Modifier Day Schedule Name
    Wetbulb,                 !- Humidity Condition Type
    -3.3,                    !- Wetbulb or DewPoint at Maximum Dry-Bulb {C}
    ,                        !- Humidity Condition Day Schedule Name
    ,                        !- Humidity Ratio at Maximum Dry-Bulb {kgWater/kgDryAir}
    ,                        !- Enthalpy at Maximum Dry-Bulb {J/kg}
    ,                        !- Daily Wet-Bulb Temperature Range {deltaC}
    100177.,                 !- Barometric Pressure {Pa}
    3.8,                     !- Wind Speed {m/s}
    350,                     !- Wind Direction {deg}
    No,                      !- Rain Indicator
    No,                      !- Snow Indicator
    No,                      !- Daylight Saving Time Indicator
    ASHRAEClearSky,          !- Solar Model Indicator
    ,                        !- Beam Solar Day Schedule Name
    ,                        !- Diffuse Solar Day Schedule Name
    0,                       !- ASHRAE Clear Sky Optical Depth for Beam Irradiance (taub) {dimensionless}
    0,                       !- ASHRAE Clear Sky Optical Depth for Diffuse Irradiance (taud) {dimensionless}
    0;                       !- Sky Clearness

SizingPeriod:DesignDay,
    College Station Easterwood Fl Ann Clg .4% Condns DB=>MWB,  !- Name
    8,                       !- Month
    21,                      !- Day of Month
    SummerDesignDay,         !- Day Type
    37.3,                    !- Maximum Dry-Bulb Temperature {C}
    11.8,                    !- Daily Dry-Bulb Temperature Range {deltaC}
    DefaultMultipliers,      !- Dry-Bulb Temperature Range Modifier Type
    ,                        !- Dry-Bulb Temperature Range Modifier Day Schedule Name
    Wetbulb,                 !- Humidity Condition Type
    24.5,                    !- Wetbulb or DewPoint at Maximum Dry-Bulb {C}
    ,                        !- Humidity Condition Day Schedule Name
    ,                        !- Humidity Ratio at Maximum Dry-Bulb {kgWater/kgDryAir}
    ,                        !- Enthalpy at Maximum Dry-Bulb {J/kg}
    ,                        !- Daily Wet-Bulb Temperature Range {deltaC}
    100177.,                 !- Barometric Pressure {Pa}
    3.7,                     !- Wind Speed {m/s}
    170,                     !- Wind Direction {deg}
    No,                      !- Rain Indicator
    No,                      !- Snow Indicator
    No,                      !- Daylight Saving Time Indicator
    ASHRAETau,               !- Solar Model Indicator
    ,                        !- Beam Solar Day Schedule Name
    ,                        !- Diffuse Solar Day Schedule Name
    0.479,                   !- ASHRAE Clear Sky Optical Depth for Beam Irradiance (taub) {dimensionless}
    2.029;                   !- ASHRAE Clear Sky Optical Depth for Diffuse Irradiance (taud) {dimensionless}


!-   ===========  ALL OBJECTS IN CLASS: RUNPERIOD ===========

RunPeriod,
    RunPeriod,               !- Name
    1,                       !- Begin Month
    31,                      !- Begin Day of Month
    ,                        !- Begin Year
    12,                      !- End Month
    31,                      !- End Day of Month
    ,                        !- End Year
    ,                        !- Day of Week for Start Day
    Yes,                     !- Use Weather File Holidays and Special Days
    Yes,                     !- Use Weather File Daylight Saving Period
    No,                      !- Apply Weekend Holiday Rule
    No,                      !- Use Weather File Rain Indicators
    No,                      !- Use Weather File Snow Indicators
    No;                      !- Treat Weather as Actual


!-   ===========  ALL OBJECTS IN CLASS: RUNPERIODCONTROL:SPECIALDAYS ===========

RunPeriodControl:SpecialDays,
    New Years Day,           !- Name
    January 1,               !- Start Date
    1,                       !- Duration {days}
    Holiday;                 !- Special Day Type

RunPeriodControl:SpecialDays,
    Veterans Day,            !- Name
    November 11,             !- Start Date
    1,                       !- Duration {days}
    Holiday;                 !- Special Day Type

RunPeriodControl:SpecialDays,
    Christmas,               !- Name
    December 25,             !- Start Date
    1,                       !- Duration {days}
    Holiday;                 !- Special Day Type

RunPeriodControl:SpecialDays,
    Independence Day,        !- Name
    July 4,                  !- Start Date
    1,                       !- Duration {days}
    Holiday;                 !- Special Day Type

RunPeriodControl:SpecialDays,
    MLK Day,                 !- Name
    3rd Monday in January,   !- Start Date
    1,                       !- Duration {days}
    Holiday;                 !- Special Day Type

RunPeriodControl:SpecialDays,
    Presidents Day,          !- Name
    3rd Monday in February,  !- Start Date
    1,                       !- Duration {days}
    Holiday;                 !- Special Day Type

RunPeriodControl:SpecialDays,
    Memorial Day,            !- Name
    Last Monday in May,      !- Start Date
    1,                       !- Duration {days}
    Holiday;                 !- Special Day Type

RunPeriodControl:SpecialDays,
    Labor Day,               !- Name
    1st Monday in September, !- Start Date
    1,                       !- Duration {days}
    Holiday;                 !- Special Day Type

RunPeriodControl:SpecialDays,
    Columbus Day,            !- Name
    2nd Monday in October,   !- Start Date
    1,                       !- Duration {days}
    Holiday;                 !- Special Day Type

RunPeriodControl:SpecialDays,
    Thanksgiving,            !- Name
    4th Thursday in November,!- Start Date
    1,                       !- Duration {days}
    Holiday;                 !- Special Day Type


!-   ===========  ALL OBJECTS IN CLASS: RUNPERIODCONTROL:DAYLIGHTSAVINGTIME ===========

! Daylight Saving Period in US
RunPeriodControl:DaylightSavingTime,
    2nd Sunday in March,     !- Start Date
    1st Sunday in November;  !- End Date


!-   ===========  ALL OBJECTS IN CLASS: SCHEDULETYPELIMITS ===========

ScheduleTypeLimits,
    Any Number;              !- Name

ScheduleTypeLimits,
    Fraction,                !- Name
    0.0,                     !- Lower Limit Value
    1.0,                     !- Upper Limit Value
    CONTINUOUS;              !- Numeric Type

ScheduleTypeLimits,
    Temperature,             !- Name
    -60,                     !- Lower Limit Value
    200,                     !- Upper Limit Value
    CONTINUOUS;              !- Numeric Type

ScheduleTypeLimits,
    On/Off,                  !- Name
    0,                       !- Lower Limit Value
    1,                       !- Upper Limit Value
    DISCRETE;                !- Numeric Type

ScheduleTypeLimits,
    Control Type,            !- Name
    0,                       !- Lower Limit Value
    4,                       !- Upper Limit Value
    DISCRETE;                !- Numeric Type

ScheduleTypeLimits,
    Humidity,                !- Name
    10,                      !- Lower Limit Value
    90,                      !- Upper Limit Value
    CONTINUOUS;              !- Numeric Type

ScheduleTypeLimits,
    Number;                  !- Name

ScheduleTypeLimits,
    HVACTemplate Any Number; !- Name


!-   ===========  ALL OBJECTS IN CLASS: SCHEDULE:COMPACT ===========

Schedule:Compact,
    Always Off,              !- Name
    Fraction,                !- Schedule Type Limits Name
    Through: 12/31,          !- Field 1
    For: AllDays,            !- Field 2
    Until: 24:00,            !- Field 3
    0.0;                     !- Field 4

Schedule:Compact,
    Heating Setpoint Schedule,  !- Name
    Temperature,             !- Schedule Type Limits Name
    Through: 12/31,          !- Field 1
    For: SummerDesignDay,    !- Field 2
    Until: 24:00,            !- Field 3
    15.6,                    !- Field 4
    For: WinterDesignDay,    !- Field 5
    Until: 24:00,            !- Field 6
    21.6,                    !- Field 7
    For: AllOtherDays,       !- Field 8
    Until: 24:00,            !- Field 9
    20;                      !- Field 10

Schedule:Compact,
    Cooling Setpoint Schedule,  !- Name
    Temperature,             !- Schedule Type Limits Name
    Through: 12/31,          !- Field 1
    For: SummerDesignDay,    !- Field 2
    Until: 24:00,            !- Field 3
    24.4,                    !- Field 4
    For: WinterDesignDay,    !- Field 5
    Until: 24:00,            !- Field 6
    30.0,                    !- Field 7
    For: AllOtherDays,       !- Field 8
    Until: 24:00,            !- Field 9
    25;                      !- Field 10

Schedule:Compact,
    CoolingSetpointSchedule, !- Name
    Temperature,             !- Schedule Type Limits Name
    Through: 10/26,          !- Field 1
    For: AllDays,            !- Field 2
    Until: 17:00,            !- Field 3
    24,                      !- Field 4
    Until: 24:00,            !- Field 5
    50.0,                    !- Field 6
    Through: 12/31,          !- Field 7
    For: AllDays,            !- Field 8
    Until: 24:00,            !- Field 9
    50.0;                    !- Field 10

Schedule:Compact,
    HeatingSetpointSchedule, !- Name
    Temperature,             !- Schedule Type Limits Name
    Through: 10/26,          !- Field 1
    For: AllDays,            !- Field 2
    Until: 17:00,            !- Field 3
    20,                      !- Field 4
    Until: 24:00,            !- Field 5
    5.0,                     !- Field 6
    Through: 12/31,          !- Field 7
    For: AllDays,            !- Field 8
    Until: 24:00,            !- Field 9
    5.0;                     !- Field 10

Schedule:Compact,
    Thermostat_Control_Type, !- Name
    Any Number,              !- Schedule Type Limits Name
    Through: 12/31,          !- Field 1
    For: AllDays,            !- Field 2
    Until: 24:00,            !- Field 3
    4;                       !- Field 4

Schedule:Compact,
    Always On,               !- Name
    Fraction,                !- Schedule Type Limits Name
    Through: 12/31,          !- Field 1
    For: AllDays,            !- Field 2
    Until: 24:00,            !- Field 3
    1.0;                     !- Field 4

Schedule:Compact,
    LivingRoom_Sensible,     !- Name
    Fraction,                !- Schedule Type Limits Name
    Through: 12/31,          !- Field 1
    For: AllDays,            !- Field 2
    Until: 1:00,             !- Field 3
    .218,                    !- Field 4
    Until: 2:00,             !- Field 5
    .205,                    !- Field 6
    Until: 3:00,             !- Field 7
    .191,                    !- Field 8
    Until: 4:00,             !- Field 9
    .189,                    !- Field 10
    Until: 5:00,             !- Field 11
    .189,                    !- Field 12
    Until: 6:00,             !- Field 13
    .216,                    !- Field 14
    Until: 7:00,             !- Field 15
    .478,                    !- Field 16
    Until: 8:00,             !- Field 17
    .536,                    !- Field 18
    Until: 9:00,             !- Field 19
    .453,                    !- Field 20
    Until: 10:00,            !- Field 21
    .374,                    !- Field 22
    Until: 11:00,            !- Field 23
    .358,                    !- Field 24
    Until: 12:00,            !- Field 25
    .371,                    !- Field 26
    Until: 13:00,            !- Field 27
    .385,                    !- Field 28
    Until: 14:00,            !- Field 29
    .364,                    !- Field 30
    Until: 15:00,            !- Field 31
    .362,                    !- Field 32
    Until: 16:00,            !- Field 33
    .4,                      !- Field 34
    Until: 17:00,            !- Field 35
    .514,                    !- Field 36
    Until: 18:00,            !- Field 37
    .847,                    !- Field 38
    Until: 19:00,            !- Field 39
    1,                       !- Field 40
    Until: 20:00,            !- Field 41
    .877,                    !- Field 42
    Until: 21:00,            !- Field 43
    .814,                    !- Field 44
    Until: 22:00,            !- Field 45
    .77,                     !- Field 46
    Until: 23:00,            !- Field 47
    .509,                    !- Field 48
    Until: 24:00,            !- Field 49
    .264;                    !- Field 50

Schedule:Compact,
    LivingRoom_Latent,       !- Name
    Fraction,                !- Schedule Type Limits Name
    Through: 12/31,          !- Field 1
    For: AllDays,            !- Field 2
    Until: 1:00,             !- Field 3
    .04,                     !- Field 4
    Until: 2:00,             !- Field 5
    .037,                    !- Field 6
    Until: 3:00,             !- Field 7
    .024,                    !- Field 8
    Until: 4:00,             !- Field 9
    .023,                    !- Field 10
    Until: 5:00,             !- Field 11
    .035,                    !- Field 12
    Until: 6:00,             !- Field 13
    .051,                    !- Field 14
    Until: 7:00,             !- Field 15
    .385,                    !- Field 16
    Until: 8:00,             !- Field 17
    .45,                     !- Field 18
    Until: 9:00,             !- Field 19
    .356,                    !- Field 20
    Until: 10:00,            !- Field 21
    .265,                    !- Field 22
    Until: 11:00,            !- Field 23
    .243,                    !- Field 24
    Until: 12:00,            !- Field 25
    .264,                    !- Field 26
    Until: 13:00,            !- Field 27
    .286,                    !- Field 28
    Until: 14:00,            !- Field 29
    .252,                    !- Field 30
    Until: 15:00,            !- Field 31
    .242,                    !- Field 32
    Until: 16:00,            !- Field 33
    .286,                    !- Field 34
    Until: 17:00,            !- Field 35
    .409,                    !- Field 36
    Until: 18:00,            !- Field 37
    .822,                    !- Field 38
    Until: 19:00,            !- Field 39
    1,                       !- Field 40
    Until: 20:00,            !- Field 41
    .814,                    !- Field 42
    Until: 21:00,            !- Field 43
    .724,                    !- Field 44
    Until: 22:00,            !- Field 45
    .681,                    !- Field 46
    Until: 23:00,            !- Field 47
    .362,                    !- Field 48
    Until: 24:00,            !- Field 49
    .06;                     !- Field 50

Schedule:Compact,
    Bedroom1_Sensible,       !- Name
    Fraction,                !- Schedule Type Limits Name
    Through: 12/31,          !- Field 1
    For: AllDays,            !- Field 2
    Until: 1:00,             !- Field 3
    .898,                    !- Field 4
    Until: 2:00,             !- Field 5
    .863,                    !- Field 6
    Until: 3:00,             !- Field 7
    .851,                    !- Field 8
    Until: 4:00,             !- Field 9
    .855,                    !- Field 10
    Until: 5:00,             !- Field 11
    .862,                    !- Field 12
    Until: 6:00,             !- Field 13
    .993,                    !- Field 14
    Until: 7:00,             !- Field 15
    .93,                     !- Field 16
    Until: 8:00,             !- Field 17
    .859,                    !- Field 18
    Until: 9:00,             !- Field 19
    .566,                    !- Field 20
    Until: 10:00,            !- Field 21
    .474,                    !- Field 22
    Until: 11:00,            !- Field 23
    .44,                     !- Field 24
    Until: 12:00,            !- Field 25
    .404,                    !- Field 26
    Until: 13:00,            !- Field 27
    .363,                    !- Field 28
    Until: 14:00,            !- Field 29
    .355,                    !- Field 30
    Until: 15:00,            !- Field 31
    .359,                    !- Field 32
    Until: 16:00,            !- Field 33
    .378,                    !- Field 34
    Until: 17:00,            !- Field 35
    .448,                    !- Field 36
    Until: 18:00,            !- Field 37
    .55,                     !- Field 38
    Until: 19:00,            !- Field 39
    .611,                    !- Field 40
    Until: 20:00,            !- Field 41
    .63,                     !- Field 42
    Until: 21:00,            !- Field 43
    .638,                    !- Field 44
    Until: 22:00,            !- Field 45
    .609,                    !- Field 46
    Until: 23:00,            !- Field 47
    .8,                      !- Field 48
    Until: 24:00,            !- Field 49
    1;                       !- Field 50

Schedule:Compact,
    Bedroom1_Latent,         !- Name
    Fraction,                !- Schedule Type Limits Name
    Through: 12/31,          !- Field 1
    For: AllDays,            !- Field 2
    Until: 1:00,             !- Field 3
    .847,                    !- Field 4
    Until: 2:00,             !- Field 5
    .82,                     !- Field 6
    Until: 3:00,             !- Field 7
    .814,                    !- Field 8
    Until: 4:00,             !- Field 9
    .819,                    !- Field 10
    Until: 5:00,             !- Field 11
    .851,                    !- Field 12
    Until: 6:00,             !- Field 13
    1,                       !- Field 14
    Until: 7:00,             !- Field 15
    .873,                    !- Field 16
    Until: 8:00,             !- Field 17
    .748,                    !- Field 18
    Until: 9:00,             !- Field 19
    .407,                    !- Field 20
    Until: 10:00,            !- Field 21
    .326,                    !- Field 22
    Until: 11:00,            !- Field 23
    .269,                    !- Field 24
    Until: 12:00,            !- Field 25
    .22,                     !- Field 26
    Until: 13:00,            !- Field 27
    .17,                     !- Field 28
    Until: 14:00,            !- Field 29
    .151,                    !- Field 30
    Until: 15:00,            !- Field 31
    .136,                    !- Field 32
    Until: 16:00,            !- Field 33
    .141,                    !- Field 34
    Until: 17:00,            !- Field 35
    .163,                    !- Field 36
    Until: 18:00,            !- Field 37
    .209,                    !- Field 38
    Until: 19:00,            !- Field 39
    .23,                     !- Field 40
    Until: 20:00,            !- Field 41
    .228,                    !- Field 42
    Until: 21:00,            !- Field 43
    .221,                    !- Field 44
    Until: 22:00,            !- Field 45
    .212,                    !- Field 46
    Until: 23:00,            !- Field 47
    .549,                    !- Field 48
    Until: 24:00,            !- Field 49
    .896;                    !- Field 50

Schedule:Compact,
    Bedroom2_Sensible,       !- Name
    Fraction,                !- Schedule Type Limits Name
    Through: 12/31,          !- Field 1
    For: AllDays,            !- Field 2
    Until: 1:00,             !- Field 3
    .933,                    !- Field 4
    Until: 2:00,             !- Field 5
    .916,                    !- Field 6
    Until: 3:00,             !- Field 7
    .908,                    !- Field 8
    Until: 4:00,             !- Field 9
    .908,                    !- Field 10
    Until: 5:00,             !- Field 11
    .891,                    !- Field 12
    Until: 6:00,             !- Field 13
    .925,                    !- Field 14
    Until: 7:00,             !- Field 15
    .663,                    !- Field 16
    Until: 8:00,             !- Field 17
    .574,                    !- Field 18
    Until: 9:00,             !- Field 19
    .309,                    !- Field 20
    Until: 10:00,            !- Field 21
    .267,                    !- Field 22
    Until: 11:00,            !- Field 23
    .276,                    !- Field 24
    Until: 12:00,            !- Field 25
    .276,                    !- Field 26
    Until: 13:00,            !- Field 27
    .267,                    !- Field 28
    Until: 14:00,            !- Field 29
    .276,                    !- Field 30
    Until: 15:00,            !- Field 31
    .292,                    !- Field 32
    Until: 16:00,            !- Field 33
    .309,                    !- Field 34
    Until: 17:00,            !- Field 35
    .368,                    !- Field 36
    Until: 18:00,            !- Field 37
    .443,                    !- Field 38
    Until: 19:00,            !- Field 39
    .485,                    !- Field 40
    Until: 20:00,            !- Field 41
    .501,                    !- Field 42
    Until: 21:00,            !- Field 43
    .518,                    !- Field 44
    Until: 22:00,            !- Field 45
    .501,                    !- Field 46
    Until: 23:00,            !- Field 47
    .746,                    !- Field 48
    Until: 24:00,            !- Field 49
    1;                       !- Field 50

Schedule:Compact,
    Bedroom2_Latent,         !- Name
    Fraction,                !- Schedule Type Limits Name
    Through: 12/31,          !- Field 1
    For: AllDays,            !- Field 2
    Until: 1:00,             !- Field 3
    .994,                    !- Field 4
    Until: 2:00,             !- Field 5
    .992,                    !- Field 6
    Until: 3:00,             !- Field 7
    .992,                    !- Field 8
    Until: 4:00,             !- Field 9
    .992,                    !- Field 10
    Until: 5:00,             !- Field 11
    .99,                     !- Field 12
    Until: 6:00,             !- Field 13
    .993,                    !- Field 14
    Until: 7:00,             !- Field 15
    .515,                    !- Field 16
    Until: 8:00,             !- Field 17
    .352,                    !- Field 18
    Until: 9:00,             !- Field 19
    .028,                    !- Field 20
    Until: 10:00,            !- Field 21
    .024,                    !- Field 22
    Until: 11:00,            !- Field 23
    .025,                    !- Field 24
    Until: 12:00,            !- Field 25
    .025,                    !- Field 26
    Until: 13:00,            !- Field 27
    .024,                    !- Field 28
    Until: 14:00,            !- Field 29
    .025,                    !- Field 30
    Until: 15:00,            !- Field 31
    .027,                    !- Field 32
    Until: 16:00,            !- Field 33
    .028,                    !- Field 34
    Until: 17:00,            !- Field 35
    .033,                    !- Field 36
    Until: 18:00,            !- Field 37
    .04,                     !- Field 38
    Until: 19:00,            !- Field 39
    .044,                    !- Field 40
    Until: 20:00,            !- Field 41
    .045,                    !- Field 42
    Until: 21:00,            !- Field 43
    .047,                    !- Field 44
    Until: 22:00,            !- Field 45
    .045,                    !- Field 46
    Until: 23:00,            !- Field 47
    .522,                    !- Field 48
    Until: 24:00,            !- Field 49
    1;                       !- Field 50

Schedule:Compact,
    Bedroom3_Sensible,       !- Name
    Fraction,                !- Schedule Type Limits Name
    Through: 12/31,          !- Field 1
    For: AllDays,            !- Field 2
    Until: 1:00,             !- Field 3
    .765,                    !- Field 4
    Until: 2:00,             !- Field 5
    .711,                    !- Field 6
    Until: 3:00,             !- Field 7
    .698,                    !- Field 8
    Until: 4:00,             !- Field 9
    .702,                    !- Field 10
    Until: 5:00,             !- Field 11
    .723,                    !- Field 12
    Until: 6:00,             !- Field 13
    .904,                    !- Field 14
    Until: 7:00,             !- Field 15
    1,                       !- Field 16
    Until: 8:00,             !- Field 17
    .981,                    !- Field 18
    Until: 9:00,             !- Field 19
    .721,                    !- Field 20
    Until: 10:00,            !- Field 21
    .602,                    !- Field 22
    Until: 11:00,            !- Field 23
    .534,                    !- Field 24
    Until: 12:00,            !- Field 25
    .478,                    !- Field 26
    Until: 13:00,            !- Field 27
    .428,                    !- Field 28
    Until: 14:00,            !- Field 29
    .408,                    !- Field 30
    Until: 15:00,            !- Field 31
    .401,                    !- Field 32
    Until: 16:00,            !- Field 33
    .423,                    !- Field 34
    Until: 17:00,            !- Field 35
    .504,                    !- Field 36
    Until: 18:00,            !- Field 37
    .642,                    !- Field 38
    Until: 19:00,            !- Field 39
    .737,                    !- Field 40
    Until: 20:00,            !- Field 41
    .753,                    !- Field 42
    Until: 21:00,            !- Field 43
    .728,                    !- Field 44
    Until: 22:00,            !- Field 45
    .67,                     !- Field 46
    Until: 23:00,            !- Field 47
    .79,                     !- Field 48
    Until: 24:00,            !- Field 49
    .903;                    !- Field 50

Schedule:Compact,
    Bedroom3_Latent,         !- Name
    Fraction,                !- Schedule Type Limits Name
    Through: 12/31,          !- Field 1
    For: AllDays,            !- Field 2
    Until: 1:00,             !- Field 3
    .994,                    !- Field 4
    Until: 2:00,             !- Field 5
    .992,                    !- Field 6
    Until: 3:00,             !- Field 7
    .992,                    !- Field 8
    Until: 4:00,             !- Field 9
    .992,                    !- Field 10
    Until: 5:00,             !- Field 11
    .99,                     !- Field 12
    Until: 6:00,             !- Field 13
    .993,                    !- Field 14
    Until: 7:00,             !- Field 15
    .515,                    !- Field 16
    Until: 8:00,             !- Field 17
    .352,                    !- Field 18
    Until: 9:00,             !- Field 19
    .028,                    !- Field 20
    Until: 10:00,            !- Field 21
    .024,                    !- Field 22
    Until: 11:00,            !- Field 23
    .025,                    !- Field 24
    Until: 12:00,            !- Field 25
    .025,                    !- Field 26
    Until: 13:00,            !- Field 27
    .024,                    !- Field 28
    Until: 14:00,            !- Field 29
    .025,                    !- Field 30
    Until: 15:00,            !- Field 31
    .027,                    !- Field 32
    Until: 16:00,            !- Field 33
    .028,                    !- Field 34
    Until: 17:00,            !- Field 35
    .033,                    !- Field 36
    Until: 18:00,            !- Field 37
    .04,                     !- Field 38
    Until: 19:00,            !- Field 39
    .044,                    !- Field 40
    Until: 20:00,            !- Field 41
    .045,                    !- Field 42
    Until: 21:00,            !- Field 43
    .047,                    !- Field 44
    Until: 22:00,            !- Field 45
    .045,                    !- Field 46
    Until: 23:00,            !- Field 47
    .522,                    !- Field 48
    Until: 24:00,            !- Field 49